[Config Wireless01]
description = Plant model communicating wirelessly
network = MIC_DEMO
sim-time-limit = 30s

*.Sensor_*.networkLayer.arpType = "GlobalARP"
*.Actuator_*.networkLayer.arpType = "GlobalARP"
*.Physical_Process_*.networkLayer.arpType = "GlobalARP"
*.Controller_*.networkLayer.arpType = "GlobalARP"

*.Sensor_SensorA.numUdpApps = 2
*.Sensor_SensorA.udpApp[0].typename = "UDPSink"
*.Sensor_SensorA.udpApp[0].localPort = 5001
*.Sensor_SensorA.udpApp[1].typename = "UDPBasicApp"
*.Sensor_SensorA.udpApp[1].destAddresses = "Controller_CNT"
*.Sensor_SensorA.udpApp[1].destPort = 6001
*.Sensor_SensorA.udpApp[1].messageLength = 20B
*.Sensor_SensorA.udpApp[1].sendInterval = exponential(10ms)
*.Sensor_SensorA.udpApp[1].packetName = "SensorA_Reading"

*.Sensor_SensorB.numUdpApps = 2
*.Sensor_SensorB.udpApp[0].typename = "UDPSink"
*.Sensor_SensorB.udpApp[0].localPort = 5000
*.Sensor_SensorB.udpApp[1].typename = "UDPBasicApp"
*.Sensor_SensorB.udpApp[1].destAddresses = "Controller_CNT"
*.Sensor_SensorB.udpApp[1].destPort = 6000
*.Sensor_SensorB.udpApp[1].messageLength = 20B
*.Sensor_SensorB.udpApp[1].sendInterval = exponential(10ms)
*.Sensor_SensorB.udpApp[1].packetName = "SensorB_Reading"

*.Controller_CNT.numUdpApps = 4
*.Controller_CNT.udpApp[0].typename = "UDPSink"
*.Controller_CNT.udpApp[0].localPort = 6001
*.Controller_CNT.udpApp[1].typename = "UDPSink"
*.Controller_CNT.udpApp[1].localPort = 6000
*.Controller_CNT.udpApp[2].typename = "UDPBasicApp"
*.Controller_CNT.udpApp[2].messageLength = 20B
*.Controller_CNT.udpApp[2].sendInterval = exponential(10ms)
*.Controller_CNT.udpApp[3].typename = "UDPBasicApp"
*.Controller_CNT.udpApp[3].messageLength = 20B
*.Controller_CNT.udpApp[3].sendInterval = exponential(10ms)
*.Controller_CNT.udpApp[2].destAddresses = "Actuator_ActuatorA"
*.Controller_CNT.udpApp[2].destPort = 7001
*.Controller_CNT.udpApp[2].packetName = "ActuatorA_Command"
*.Controller_CNT.udpApp[3].destAddresses = "Actuator_ActuatorB"
*.Controller_CNT.udpApp[3].destPort = 7000
*.Controller_CNT.udpApp[3].packetName = "ActuatorB_Command"

*.Actuator_ActuatorA.numUdpApps = 2
*.Actuator_ActuatorA.udpApp[0].typename = "UDPSink"
*.Actuator_ActuatorA.udpApp[0].localPort = 7001
*.Actuator_ActuatorA.udpApp[1].typename = "UDPBasicApp"
*.Actuator_ActuatorA.udpApp[1].destAddresses = "Physical_Process_PP"
*.Actuator_ActuatorA.udpApp[1].destPort = 8001
*.Actuator_ActuatorA.udpApp[1].messageLength = 20B
*.Actuator_ActuatorA.udpApp[1].sendInterval = exponential(10ms)
*.Actuator_ActuatorA.udpApp[1].packetName = "ActuatorA_Change"

*.Actuator_ActuatorB.numUdpApps = 2
*.Actuator_ActuatorB.udpApp[0].typename = "UDPSink"
*.Actuator_ActuatorB.udpApp[0].localPort = 7000
*.Actuator_ActuatorB.udpApp[1].typename = "UDPBasicApp"
*.Actuator_ActuatorB.udpApp[1].destAddresses = "Physical_Process_PP"
*.Actuator_ActuatorB.udpApp[1].destPort = 8000
*.Actuator_ActuatorB.udpApp[1].messageLength = 20B
*.Actuator_ActuatorB.udpApp[1].sendInterval = exponential(10ms)
*.Actuator_ActuatorB.udpApp[1].packetName = "ActuatorB_Change"

*.Physical_Process_PP.numUdpApps = 4
*.Physical_Process_PP.udpApp[0].typename = "UDPSink"
*.Physical_Process_PP.udpApp[0].localPort = 8001
*.Physical_Process_PP.udpApp[1].typename = "UDPSink"
*.Physical_Process_PP.udpApp[1].localPort = 8000
*.Physical_Process_PP.udpApp[2].typename = "UDPBasicApp"
*.Physical_Process_PP.udpApp[2].messageLength = 20B
*.Physical_Process_PP.udpApp[2].sendInterval = exponential(10ms)
*.Physical_Process_PP.udpApp[3].typename = "UDPBasicApp"
*.Physical_Process_PP.udpApp[3].messageLength = 20B
*.Physical_Process_PP.udpApp[3].sendInterval = exponential(10ms)
*.Physical_Process_PP.udpApp[2].destAddresses = "Sensor_SensorA"
*.Physical_Process_PP.udpApp[2].destPort = 5001
*.Physical_Process_PP.udpApp[2].packetName = "SensorA_Result"
*.Physical_Process_PP.udpApp[3].destAddresses = "Sensor_SensorB"
*.Physical_Process_PP.udpApp[3].destPort = 5000
*.Physical_Process_PP.udpApp[3].packetName = "SensorB_Result"

*.Sensor_*.wlan[0].typename = "IdealWirelessNic"
*.Sensor_*.wlan[0].mac.useAck = false
*.Sensor_*.wlan[0].mac.fullDuplex = false
*.Sensor_SensorA*.wlan[0].radio.transmitter.communicationRange = 300m
*.Sensor_SensorA*.wlan[0].radio.receiver.ignoreInterference = true
*.Sensor_SensorB*.wlan[0].radio.transmitter.communicationRange = 300m
*.Sensor_SensorB*.wlan[0].radio.receiver.ignoreInterference = false
*.Sensor_SensorB*.wlan[0].radio.transmitter.interferenceRange = 600m

*.Sensor_*.**.bitrate = 1Mbps

*.Controller_*.wlan[0].typename = "IdealWirelessNic"
*.Controller_*.wlan[0].mac.useAck = false
*.Controller_*.wlan[0].mac.fullDuplex = false
*.Controller_*.wlan[0].radio.transmitter.communicationRange = 300m
*.Controller_*.wlan[0].radio.receiver.ignoreInterference = true

*.Controller_*.**.bitrate = 1Mbps

*.Actuator_*.wlan[0].typename = "IdealWirelessNic"
*.Actuator_*.wlan[0].mac.useAck = false
*.Actuator_*.wlan[0].mac.fullDuplex = false
*.Actuator_ActuatorA*.wlan[0].radio.transmitter.communicationRange = 300m
*.Actuator_ActuatorA*.wlan[0].radio.receiver.ignoreInterference = true
*.Actuator_ActuatorB*.wlan[0].radio.transmitter.communicationRange = 300m
*.Actuator_ActuatorB*.wlan[0].radio.receiver.ignoreInterference = false
*.Actuator_ActuatorB*.wlan[0].radio.transmitter.interferenceRange = 600m

*.Actuator_*.**.bitrate = 1Mbps

*.Physical_Process_*.wlan[0].typename = "IdealWirelessNic"
*.Physical_Process_*.wlan[0].mac.useAck = false
*.Physical_Process_*.wlan[0].mac.fullDuplex = false
*.Physical_Process_*.wlan[0].radio.transmitter.communicationRange = 300m
*.Physical_Process_*.wlan[0].radio.receiver.ignoreInterference = true

*.Physical_Process_*.**.bitrate = 1Mbps